LTspice 26.0.1 for Windows
Circuit: C:\Users\Antonio\Downloads\selec\lab12_schematics.net
Start Time: Thu Feb 26 12:11:33 2026
solver = Normal
Maximum thread count: 16
tnom = 27
temp = 27
method = trap
Direct Newton iteration succeeded in finding operating point.
Total elapsed time: 0.030 seconds.

Files loaded:
C:\Users\Antonio\Downloads\selec\lab12_schematics.net
C:\Users\Antonio\AppData\Local\LTspice\lib\cmp\standard.bjt

